FoamFile{
    version     2.0;
    format      ascii;
    class       dictionary;
    object      blockMeshDict;
}

vertices
(	(-0.005 -0.002 0)
	(-0.005 0.002 0)
	(-0.005 -0.002 0.01)
	(-0.005 0.002 0.01)
	(-0.0048000000000000004 -0.00196 0)
	(-0.0048000000000000004 0.00196 0)
	(-0.0048000000000000004 -0.00196 0.01)
	(-0.0048000000000000004 0.00196 0.01)
	(-0.0046 -0.00192 0)
	(-0.0046 0.00192 0)
	(-0.0046 -0.00192 0.01)
	(-0.0046 0.00192 0.01)
	(-0.0044 -0.0018800000000000002 0)
	(-0.0044 0.0018800000000000002 0)
	(-0.0044 -0.0018800000000000002 0.01)
	(-0.0044 0.0018800000000000002 0.01)
	(-0.0042 -0.00184 0)
	(-0.0042 0.00184 0)
	(-0.0042 -0.00184 0.01)
	(-0.0042 0.00184 0.01)
	(-0.004 -0.0018 0)
	(-0.004 0.0018 0)
	(-0.004 -0.0018 0.01)
	(-0.004 0.0018 0.01)
	(-0.0038 -0.00176 0)
	(-0.0038 0.00176 0)
	(-0.0038 -0.00176 0.01)
	(-0.0038 0.00176 0.01)
	(-0.0036 -0.00172 0)
	(-0.0036 0.00172 0)
	(-0.0036 -0.00172 0.01)
	(-0.0036 0.00172 0.01)
	(-0.0034000000000000002 -0.00168 0)
	(-0.0034000000000000002 0.00168 0)
	(-0.0034000000000000002 -0.00168 0.01)
	(-0.0034000000000000002 0.00168 0.01)
	(-0.0031999999999999997 -0.00164 0)
	(-0.0031999999999999997 0.00164 0)
	(-0.0031999999999999997 -0.00164 0.01)
	(-0.0031999999999999997 0.00164 0.01)
	(-0.003 -0.0016 0)
	(-0.003 0.0016 0)
	(-0.003 -0.0016 0.01)
	(-0.003 0.0016 0.01)
	(-0.0028 -0.00156 0)
	(-0.0028 0.00156 0)
	(-0.0028 -0.00156 0.01)
	(-0.0028 0.00156 0.01)
	(-0.0026 -0.00152 0)
	(-0.0026 0.00152 0)
	(-0.0026 -0.00152 0.01)
	(-0.0026 0.00152 0.01)
	(-0.0024 -0.00148 0)
	(-0.0024 0.00148 0)
	(-0.0024 -0.00148 0.01)
	(-0.0024 0.00148 0.01)
	(-0.0022 -0.00144 0)
	(-0.0022 0.00144 0)
	(-0.0022 -0.00144 0.01)
	(-0.0022 0.00144 0.01)
	(-0.002 -0.0014 0)
	(-0.002 0.0014 0)
	(-0.002 -0.0014 0.01)
	(-0.002 0.0014 0.01)
	(-0.0018 -0.00136 0)
	(-0.0018 0.00136 0)
	(-0.0018 -0.00136 0.01)
	(-0.0018 0.00136 0.01)
	(-0.0015999999999999999 -0.00132 0)
	(-0.0015999999999999999 0.00132 0)
	(-0.0015999999999999999 -0.00132 0.01)
	(-0.0015999999999999999 0.00132 0.01)
	(-0.0013999999999999998 -0.0012799999999999999 0)
	(-0.0013999999999999998 0.0012799999999999999 0)
	(-0.0013999999999999998 -0.0012799999999999999 0.01)
	(-0.0013999999999999998 0.0012799999999999999 0.01)
	(-0.0012000000000000001 -0.00124 0)
	(-0.0012000000000000001 0.00124 0)
	(-0.0012000000000000001 -0.00124 0.01)
	(-0.0012000000000000001 0.00124 0.01)
	(-0.001 -0.0012000000000000001 0)
	(-0.001 0.0012000000000000001 0)
	(-0.001 -0.0012000000000000001 0.01)
	(-0.001 0.0012000000000000001 0.01)
	(-0.0007999999999999995 -0.00116 0)
	(-0.0007999999999999995 0.00116 0)
	(-0.0007999999999999995 -0.00116 0.01)
	(-0.0007999999999999995 0.00116 0.01)
	(-0.0005999999999999998 -0.00112 0)
	(-0.0005999999999999998 0.00112 0)
	(-0.0005999999999999998 -0.00112 0.01)
	(-0.0005999999999999998 0.00112 0.01)
	(-0.0004000000000000002 -0.00108 0)
	(-0.0004000000000000002 0.00108 0)
	(-0.0004000000000000002 -0.00108 0.01)
	(-0.0004000000000000002 0.00108 0.01)
	(-0.00019999999999999966 -0.00104 0)
	(-0.00019999999999999966 0.00104 0)
	(-0.00019999999999999966 -0.00104 0.01)
	(-0.00019999999999999966 0.00104 0.01)
	(0.0 -0.001 0)
	(0.0 0.001 0)
	(0.0 -0.001 0.01)
	(0.0 0.001 0.01)
	(0.00020000000000000052 -0.0010400000000000001 0)
	(0.00020000000000000052 0.0010400000000000001 0)
	(0.00020000000000000052 -0.0010400000000000001 0.01)
	(0.00020000000000000052 0.0010400000000000001 0.01)
	(0.0004000000000000002 -0.00108 0)
	(0.0004000000000000002 0.00108 0)
	(0.0004000000000000002 -0.00108 0.01)
	(0.0004000000000000002 0.00108 0.01)
	(0.0005999999999999998 -0.00112 0)
	(0.0005999999999999998 0.00112 0)
	(0.0005999999999999998 -0.00112 0.01)
	(0.0005999999999999998 0.00112 0.01)
	(0.0008000000000000004 -0.00116 0)
	(0.0008000000000000004 0.00116 0)
	(0.0008000000000000004 -0.00116 0.01)
	(0.0008000000000000004 0.00116 0.01)
	(0.001 -0.0012000000000000001 0)
	(0.001 0.0012000000000000001 0)
	(0.001 -0.0012000000000000001 0.01)
	(0.001 0.0012000000000000001 0.01)
	(0.0012000000000000005 -0.0012400000000000002 0)
	(0.0012000000000000005 0.0012400000000000002 0)
	(0.0012000000000000005 -0.0012400000000000002 0.01)
	(0.0012000000000000005 0.0012400000000000002 0.01)
	(0.0014000000000000002 -0.00128 0)
	(0.0014000000000000002 0.00128 0)
	(0.0014000000000000002 -0.00128 0.01)
	(0.0014000000000000002 0.00128 0.01)
	(0.0015999999999999999 -0.00132 0)
	(0.0015999999999999999 0.00132 0)
	(0.0015999999999999999 -0.00132 0.01)
	(0.0015999999999999999 0.00132 0.01)
	(0.0018000000000000004 -0.00136 0)
	(0.0018000000000000004 0.00136 0)
	(0.0018000000000000004 -0.00136 0.01)
	(0.0018000000000000004 0.00136 0.01)
	(0.002 -0.0014 0)
	(0.002 0.0014 0)
	(0.002 -0.0014 0.01)
	(0.002 0.0014 0.01)
	(0.0022000000000000006 -0.00144 0)
	(0.0022000000000000006 0.00144 0)
	(0.0022000000000000006 -0.00144 0.01)
	(0.0022000000000000006 0.00144 0.01)
	(0.0024000000000000002 -0.00148 0)
	(0.0024000000000000002 0.00148 0)
	(0.0024000000000000002 -0.00148 0.01)
	(0.0024000000000000002 0.00148 0.01)
	(0.0026 -0.00152 0)
	(0.0026 0.00152 0)
	(0.0026 -0.00152 0.01)
	(0.0026 0.00152 0.01)
	(0.0028000000000000004 -0.0015600000000000002 0)
	(0.0028000000000000004 0.0015600000000000002 0)
	(0.0028000000000000004 -0.0015600000000000002 0.01)
	(0.0028000000000000004 0.0015600000000000002 0.01)
	(0.003 -0.0016 0)
	(0.003 0.0016 0)
	(0.003 -0.0016 0.01)
	(0.003 0.0016 0.01)
	(0.0032000000000000006 -0.0016400000000000002 0)
	(0.0032000000000000006 0.0016400000000000002 0)
	(0.0032000000000000006 -0.0016400000000000002 0.01)
	(0.0032000000000000006 0.0016400000000000002 0.01)
	(0.003400000000000001 -0.0016800000000000003 0)
	(0.003400000000000001 0.0016800000000000003 0)
	(0.003400000000000001 -0.0016800000000000003 0.01)
	(0.003400000000000001 0.0016800000000000003 0.01)
	(0.0036 -0.00172 0)
	(0.0036 0.00172 0)
	(0.0036 -0.00172 0.01)
	(0.0036 0.00172 0.01)
	(0.0038000000000000004 -0.00176 0)
	(0.0038000000000000004 0.00176 0)
	(0.0038000000000000004 -0.00176 0.01)
	(0.0038000000000000004 0.00176 0.01)
	(0.004000000000000001 -0.0018000000000000002 0)
	(0.004000000000000001 0.0018000000000000002 0)
	(0.004000000000000001 -0.0018000000000000002 0.01)
	(0.004000000000000001 0.0018000000000000002 0.01)
	(0.0042 -0.00184 0)
	(0.0042 0.00184 0)
	(0.0042 -0.00184 0.01)
	(0.0042 0.00184 0.01)
	(0.0044 -0.0018800000000000002 0)
	(0.0044 0.0018800000000000002 0)
	(0.0044 -0.0018800000000000002 0.01)
	(0.0044 0.0018800000000000002 0.01)
	(0.004600000000000001 -0.0019200000000000003 0)
	(0.004600000000000001 0.0019200000000000003 0)
	(0.004600000000000001 -0.0019200000000000003 0.01)
	(0.004600000000000001 0.0019200000000000003 0.01)
	(0.0048 -0.00196 0)
	(0.0048 0.00196 0)
	(0.0048 -0.00196 0.01)
	(0.0048 0.00196 0.01)
	(0.005 -0.002 0)
	(0.005 0.002 0)
	(0.005 -0.002 0.01)
	(0.005 0.002 0.01)
	(0.005 -0.005 0)
	(0.005 0.005 0)
	(0.005 -0.005 0.01)
	(0.005 0.005 0.01)
	(0.0054 -0.005 0)
	(0.0054 0.005 0)
	(0.0054 -0.005 0.01)
	(0.0054 0.005 0.01)
	(0.0058000000000000005 -0.005 0)
	(0.0058000000000000005 0.005 0)
	(0.0058000000000000005 -0.005 0.01)
	(0.0058000000000000005 0.005 0.01)
	(0.006200000000000001 -0.005 0)
	(0.006200000000000001 0.005 0)
	(0.006200000000000001 -0.005 0.01)
	(0.006200000000000001 0.005 0.01)
	(0.0066 -0.005 0)
	(0.0066 0.005 0)
	(0.0066 -0.005 0.01)
	(0.0066 0.005 0.01)
	(0.007 -0.005 0)
	(0.007 0.005 0)
	(0.007 -0.005 0.01)
	(0.007 0.005 0.01)
	(0.0074 -0.005 0)
	(0.0074 0.005 0)
	(0.0074 -0.005 0.01)
	(0.0074 0.005 0.01)
	(0.0078 -0.005 0)
	(0.0078 0.005 0)
	(0.0078 -0.005 0.01)
	(0.0078 0.005 0.01)
	(0.0082 -0.005 0)
	(0.0082 0.005 0)
	(0.0082 -0.005 0.01)
	(0.0082 0.005 0.01)
	(0.0086 -0.005 0)
	(0.0086 0.005 0)
	(0.0086 -0.005 0.01)
	(0.0086 0.005 0.01)
	(0.009000000000000001 -0.005 0)
	(0.009000000000000001 0.005 0)
	(0.009000000000000001 -0.005 0.01)
	(0.009000000000000001 0.005 0.01)
	(0.0094 -0.005 0)
	(0.0094 0.005 0)
	(0.0094 -0.005 0.01)
	(0.0094 0.005 0.01)
	(0.0098 -0.005 0)
	(0.0098 0.005 0)
	(0.0098 -0.005 0.01)
	(0.0098 0.005 0.01)
	(0.0102 -0.005 0)
	(0.0102 0.005 0)
	(0.0102 -0.005 0.01)
	(0.0102 0.005 0.01)
	(0.0106 -0.005 0)
	(0.0106 0.005 0)
	(0.0106 -0.005 0.01)
	(0.0106 0.005 0.01)
	(0.011 -0.005 0)
	(0.011 0.005 0)
	(0.011 -0.005 0.01)
	(0.011 0.005 0.01)
	(0.0114 -0.005 0)
	(0.0114 0.005 0)
	(0.0114 -0.005 0.01)
	(0.0114 0.005 0.01)
	(0.011800000000000001 -0.005 0)
	(0.011800000000000001 0.005 0)
	(0.011800000000000001 -0.005 0.01)
	(0.011800000000000001 0.005 0.01)
	(0.0122 -0.005 0)
	(0.0122 0.005 0)
	(0.0122 -0.005 0.01)
	(0.0122 0.005 0.01)
	(0.0126 -0.005 0)
	(0.0126 0.005 0)
	(0.0126 -0.005 0.01)
	(0.0126 0.005 0.01)
	(0.013000000000000001 -0.005 0)
	(0.013000000000000001 0.005 0)
	(0.013000000000000001 -0.005 0.01)
	(0.013000000000000001 0.005 0.01)
	(0.013400000000000002 -0.005 0)
	(0.013400000000000002 0.005 0)
	(0.013400000000000002 -0.005 0.01)
	(0.013400000000000002 0.005 0.01)
	(0.0138 -0.005 0)
	(0.0138 0.005 0)
	(0.0138 -0.005 0.01)
	(0.0138 0.005 0.01)
	(0.0142 -0.005 0)
	(0.0142 0.005 0)
	(0.0142 -0.005 0.01)
	(0.0142 0.005 0.01)
	(0.014600000000000002 -0.005 0)
	(0.014600000000000002 0.005 0)
	(0.014600000000000002 -0.005 0.01)
	(0.014600000000000002 0.005 0.01)
	(0.015 -0.005 0)
	(0.015 0.005 0)
	(0.015 -0.005 0.01)
	(0.015 0.005 0.01)
	(0.0154 -0.005 0)
	(0.0154 0.005 0)
	(0.0154 -0.005 0.01)
	(0.0154 0.005 0.01)
	(0.0158 -0.005 0)
	(0.0158 0.005 0)
	(0.0158 -0.005 0.01)
	(0.0158 0.005 0.01)
	(0.0162 -0.005 0)
	(0.0162 0.005 0)
	(0.0162 -0.005 0.01)
	(0.0162 0.005 0.01)
	(0.0166 -0.005 0)
	(0.0166 0.005 0)
	(0.0166 -0.005 0.01)
	(0.0166 0.005 0.01)
	(0.017 -0.005 0)
	(0.017 0.005 0)
	(0.017 -0.005 0.01)
	(0.017 0.005 0.01)
	(0.017400000000000002 -0.005 0)
	(0.017400000000000002 0.005 0)
	(0.017400000000000002 -0.005 0.01)
	(0.017400000000000002 0.005 0.01)
	(0.0178 -0.005 0)
	(0.0178 0.005 0)
	(0.0178 -0.005 0.01)
	(0.0178 0.005 0.01)
	(0.0182 -0.005 0)
	(0.0182 0.005 0)
	(0.0182 -0.005 0.01)
	(0.0182 0.005 0.01)
	(0.018600000000000002 -0.005 0)
	(0.018600000000000002 0.005 0)
	(0.018600000000000002 -0.005 0.01)
	(0.018600000000000002 0.005 0.01)
	(0.019 -0.005 0)
	(0.019 0.005 0)
	(0.019 -0.005 0.01)
	(0.019 0.005 0.01)
	(0.0194 -0.005 0)
	(0.0194 0.005 0)
	(0.0194 -0.005 0.01)
	(0.0194 0.005 0.01)
	(0.0198 -0.005 0)
	(0.0198 0.005 0)
	(0.0198 -0.005 0.01)
	(0.0198 0.005 0.01)
	(0.0202 -0.005 0)
	(0.0202 0.005 0)
	(0.0202 -0.005 0.01)
	(0.0202 0.005 0.01)
	(0.0206 -0.005 0)
	(0.0206 0.005 0)
	(0.0206 -0.005 0.01)
	(0.0206 0.005 0.01)
	(0.021 -0.005 0)
	(0.021 0.005 0)
	(0.021 -0.005 0.01)
	(0.021 0.005 0.01)
	(0.021400000000000002 -0.005 0)
	(0.021400000000000002 0.005 0)
	(0.021400000000000002 -0.005 0.01)
	(0.021400000000000002 0.005 0.01)
	(0.021800000000000003 -0.005 0)
	(0.021800000000000003 0.005 0)
	(0.021800000000000003 -0.005 0.01)
	(0.021800000000000003 0.005 0.01)
	(0.0222 -0.005 0)
	(0.0222 0.005 0)
	(0.0222 -0.005 0.01)
	(0.0222 0.005 0.01)
	(0.022600000000000002 -0.005 0)
	(0.022600000000000002 0.005 0)
	(0.022600000000000002 -0.005 0.01)
	(0.022600000000000002 0.005 0.01)
	(0.023000000000000003 -0.005 0)
	(0.023000000000000003 0.005 0)
	(0.023000000000000003 -0.005 0.01)
	(0.023000000000000003 0.005 0.01)
	(0.0234 -0.005 0)
	(0.0234 0.005 0)
	(0.0234 -0.005 0.01)
	(0.0234 0.005 0.01)
	(0.0238 -0.005 0)
	(0.0238 0.005 0)
	(0.0238 -0.005 0.01)
	(0.0238 0.005 0.01)
	(0.024200000000000003 -0.005 0)
	(0.024200000000000003 0.005 0)
	(0.024200000000000003 -0.005 0.01)
	(0.024200000000000003 0.005 0.01)
	(0.0246 -0.005 0)
	(0.0246 0.005 0)
	(0.0246 -0.005 0.01)
	(0.0246 0.005 0.01)
	(0.025 -0.005 0)
	(0.025 0.005 0)
	(0.025 -0.005 0.01)
	(0.025 0.005 0.01)
);
blocks
(
hex (0 4 5 1 2 6 7 3)
(1 20 10)
SimpleGrading (1 1 1)
hex (4 8 9 5 6 10 11 7)
(1 20 10)
SimpleGrading (1 1 1)
hex (8 12 13 9 10 14 15 11)
(1 20 10)
SimpleGrading (1 1 1)
hex (12 16 17 13 14 18 19 15)
(1 20 10)
SimpleGrading (1 1 1)
hex (16 20 21 17 18 22 23 19)
(1 20 10)
SimpleGrading (1 1 1)
hex (20 24 25 21 22 26 27 23)
(1 20 10)
SimpleGrading (1 1 1)
hex (24 28 29 25 26 30 31 27)
(1 20 10)
SimpleGrading (1 1 1)
hex (28 32 33 29 30 34 35 31)
(1 20 10)
SimpleGrading (1 1 1)
hex (32 36 37 33 34 38 39 35)
(1 20 10)
SimpleGrading (1 1 1)
hex (36 40 41 37 38 42 43 39)
(1 20 10)
SimpleGrading (1 1 1)
hex (40 44 45 41 42 46 47 43)
(1 20 10)
SimpleGrading (1 1 1)
hex (44 48 49 45 46 50 51 47)
(1 20 10)
SimpleGrading (1 1 1)
hex (48 52 53 49 50 54 55 51)
(1 20 10)
SimpleGrading (1 1 1)
hex (52 56 57 53 54 58 59 55)
(1 20 10)
SimpleGrading (1 1 1)
hex (56 60 61 57 58 62 63 59)
(1 20 10)
SimpleGrading (1 1 1)
hex (60 64 65 61 62 66 67 63)
(1 20 10)
SimpleGrading (1 1 1)
hex (64 68 69 65 66 70 71 67)
(1 20 10)
SimpleGrading (1 1 1)
hex (68 72 73 69 70 74 75 71)
(1 20 10)
SimpleGrading (1 1 1)
hex (72 76 77 73 74 78 79 75)
(1 20 10)
SimpleGrading (1 1 1)
hex (76 80 81 77 78 82 83 79)
(1 20 10)
SimpleGrading (1 1 1)
hex (80 84 85 81 82 86 87 83)
(1 20 10)
SimpleGrading (1 1 1)
hex (84 88 89 85 86 90 91 87)
(1 20 10)
SimpleGrading (1 1 1)
hex (88 92 93 89 90 94 95 91)
(1 20 10)
SimpleGrading (1 1 1)
hex (92 96 97 93 94 98 99 95)
(1 20 10)
SimpleGrading (1 1 1)
hex (96 100 101 97 98 102 103 99)
(1 20 10)
SimpleGrading (1 1 1)
hex (100 104 105 101 102 106 107 103)
(1 20 10)
SimpleGrading (1 1 1)
hex (104 108 109 105 106 110 111 107)
(1 20 10)
SimpleGrading (1 1 1)
hex (108 112 113 109 110 114 115 111)
(1 20 10)
SimpleGrading (1 1 1)
hex (112 116 117 113 114 118 119 115)
(1 20 10)
SimpleGrading (1 1 1)
hex (116 120 121 117 118 122 123 119)
(1 20 10)
SimpleGrading (1 1 1)
hex (120 124 125 121 122 126 127 123)
(1 20 10)
SimpleGrading (1 1 1)
hex (124 128 129 125 126 130 131 127)
(1 20 10)
SimpleGrading (1 1 1)
hex (128 132 133 129 130 134 135 131)
(1 20 10)
SimpleGrading (1 1 1)
hex (132 136 137 133 134 138 139 135)
(1 20 10)
SimpleGrading (1 1 1)
hex (136 140 141 137 138 142 143 139)
(1 20 10)
SimpleGrading (1 1 1)
hex (140 144 145 141 142 146 147 143)
(1 20 10)
SimpleGrading (1 1 1)
hex (144 148 149 145 146 150 151 147)
(1 20 10)
SimpleGrading (1 1 1)
hex (148 152 153 149 150 154 155 151)
(1 20 10)
SimpleGrading (1 1 1)
hex (152 156 157 153 154 158 159 155)
(1 20 10)
SimpleGrading (1 1 1)
hex (156 160 161 157 158 162 163 159)
(1 20 10)
SimpleGrading (1 1 1)
hex (160 164 165 161 162 166 167 163)
(1 20 10)
SimpleGrading (1 1 1)
hex (164 168 169 165 166 170 171 167)
(1 20 10)
SimpleGrading (1 1 1)
hex (168 172 173 169 170 174 175 171)
(1 20 10)
SimpleGrading (1 1 1)
hex (172 176 177 173 174 178 179 175)
(1 20 10)
SimpleGrading (1 1 1)
hex (176 180 181 177 178 182 183 179)
(1 20 10)
SimpleGrading (1 1 1)
hex (180 184 185 181 182 186 187 183)
(1 20 10)
SimpleGrading (1 1 1)
hex (184 188 189 185 186 190 191 187)
(1 20 10)
SimpleGrading (1 1 1)
hex (188 192 193 189 190 194 195 191)
(1 20 10)
SimpleGrading (1 1 1)
hex (192 196 197 193 194 198 199 195)
(1 20 10)
SimpleGrading (1 1 1)
hex (196 200 201 197 198 202 203 199)
(1 20 10)
SimpleGrading (1 1 1)
hex (204 208 209 205 206 210 211 207)
(1 50 10)
SimpleGrading (1 1 1)
hex (208 212 213 209 210 214 215 211)
(1 50 10)
SimpleGrading (1 1 1)
hex (212 216 217 213 214 218 219 215)
(1 50 10)
SimpleGrading (1 1 1)
hex (216 220 221 217 218 222 223 219)
(1 50 10)
SimpleGrading (1 1 1)
hex (220 224 225 221 222 226 227 223)
(1 50 10)
SimpleGrading (1 1 1)
hex (224 228 229 225 226 230 231 227)
(1 50 10)
SimpleGrading (1 1 1)
hex (228 232 233 229 230 234 235 231)
(1 50 10)
SimpleGrading (1 1 1)
hex (232 236 237 233 234 238 239 235)
(1 50 10)
SimpleGrading (1 1 1)
hex (236 240 241 237 238 242 243 239)
(1 50 10)
SimpleGrading (1 1 1)
hex (240 244 245 241 242 246 247 243)
(1 50 10)
SimpleGrading (1 1 1)
hex (244 248 249 245 246 250 251 247)
(1 50 10)
SimpleGrading (1 1 1)
hex (248 252 253 249 250 254 255 251)
(1 50 10)
SimpleGrading (1 1 1)
hex (252 256 257 253 254 258 259 255)
(1 50 10)
SimpleGrading (1 1 1)
hex (256 260 261 257 258 262 263 259)
(1 50 10)
SimpleGrading (1 1 1)
hex (260 264 265 261 262 266 267 263)
(1 50 10)
SimpleGrading (1 1 1)
hex (264 268 269 265 266 270 271 267)
(1 50 10)
SimpleGrading (1 1 1)
hex (268 272 273 269 270 274 275 271)
(1 50 10)
SimpleGrading (1 1 1)
hex (272 276 277 273 274 278 279 275)
(1 50 10)
SimpleGrading (1 1 1)
hex (276 280 281 277 278 282 283 279)
(1 50 10)
SimpleGrading (1 1 1)
hex (280 284 285 281 282 286 287 283)
(1 50 10)
SimpleGrading (1 1 1)
hex (284 288 289 285 286 290 291 287)
(1 50 10)
SimpleGrading (1 1 1)
hex (288 292 293 289 290 294 295 291)
(1 50 10)
SimpleGrading (1 1 1)
hex (292 296 297 293 294 298 299 295)
(1 50 10)
SimpleGrading (1 1 1)
hex (296 300 301 297 298 302 303 299)
(1 50 10)
SimpleGrading (1 1 1)
hex (300 304 305 301 302 306 307 303)
(1 50 10)
SimpleGrading (1 1 1)
hex (304 308 309 305 306 310 311 307)
(1 50 10)
SimpleGrading (1 1 1)
hex (308 312 313 309 310 314 315 311)
(1 50 10)
SimpleGrading (1 1 1)
hex (312 316 317 313 314 318 319 315)
(1 50 10)
SimpleGrading (1 1 1)
hex (316 320 321 317 318 322 323 319)
(1 50 10)
SimpleGrading (1 1 1)
hex (320 324 325 321 322 326 327 323)
(1 50 10)
SimpleGrading (1 1 1)
hex (324 328 329 325 326 330 331 327)
(1 50 10)
SimpleGrading (1 1 1)
hex (328 332 333 329 330 334 335 331)
(1 50 10)
SimpleGrading (1 1 1)
hex (332 336 337 333 334 338 339 335)
(1 50 10)
SimpleGrading (1 1 1)
hex (336 340 341 337 338 342 343 339)
(1 50 10)
SimpleGrading (1 1 1)
hex (340 344 345 341 342 346 347 343)
(1 50 10)
SimpleGrading (1 1 1)
hex (344 348 349 345 346 350 351 347)
(1 50 10)
SimpleGrading (1 1 1)
hex (348 352 353 349 350 354 355 351)
(1 50 10)
SimpleGrading (1 1 1)
hex (352 356 357 353 354 358 359 355)
(1 50 10)
SimpleGrading (1 1 1)
hex (356 360 361 357 358 362 363 359)
(1 50 10)
SimpleGrading (1 1 1)
hex (360 364 365 361 362 366 367 363)
(1 50 10)
SimpleGrading (1 1 1)
hex (364 368 369 365 366 370 371 367)
(1 50 10)
SimpleGrading (1 1 1)
hex (368 372 373 369 370 374 375 371)
(1 50 10)
SimpleGrading (1 1 1)
hex (372 376 377 373 374 378 379 375)
(1 50 10)
SimpleGrading (1 1 1)
hex (376 380 381 377 378 382 383 379)
(1 50 10)
SimpleGrading (1 1 1)
hex (380 384 385 381 382 386 387 383)
(1 50 10)
SimpleGrading (1 1 1)
hex (384 388 389 385 386 390 391 387)
(1 50 10)
SimpleGrading (1 1 1)
hex (388 392 393 389 390 394 395 391)
(1 50 10)
SimpleGrading (1 1 1)
hex (392 396 397 393 394 398 399 395)
(1 50 10)
SimpleGrading (1 1 1)
hex (396 400 401 397 398 402 403 399)
(1 50 10)
SimpleGrading (1 1 1)
hex (400 404 405 401 402 406 407 403)
(1 50 10)
SimpleGrading (1 1 1)
);
edges
(
);
boundary
(
inlet
{
type patch;
faces
(
(0 2 3 1));
}
gasjet
{
type wall;
faces
(
(0 4 6 2)(1 3 7 5)(4 8 10 6)(5 7 11 9)(8 12 14 10)(9 11 15 13)(12 16 18 14)(13 15 19 17)(16 20 22 18)(17 19 23 21)(20 24 26 22)(21 23 27 25)(24 28 30 26)(25 27 31 29)(28 32 34 30)(29 31 35 33)(32 36 38 34)(33 35 39 37)(36 40 42 38)(37 39 43 41)(40 44 46 42)(41 43 47 45)(44 48 50 46)(45 47 51 49)(48 52 54 50)(49 51 55 53)(52 56 58 54)(53 55 59 57)(56 60 62 58)(57 59 63 61)(60 64 66 62)(61 63 67 65)(64 68 70 66)(65 67 71 69)(68 72 74 70)(69 71 75 73)(72 76 78 74)(73 75 79 77)(76 80 82 78)(77 79 83 81)(80 84 86 82)(81 83 87 85)(84 88 90 86)(85 87 91 89)(88 92 94 90)(89 91 95 93)(92 96 98 94)(93 95 99 97)(96 100 102 98)(97 99 103 101)(100 104 106 102)(101 103 107 105)(104 108 110 106)(105 107 111 109)(108 112 114 110)(109 111 115 113)(112 116 118 114)(113 115 119 117)(116 120 122 118)(117 119 123 121)(120 124 126 122)(121 123 127 125)(124 128 130 126)(125 127 131 129)(128 132 134 130)(129 131 135 133)(132 136 138 134)(133 135 139 137)(136 140 142 138)(137 139 143 141)(140 144 146 142)(141 143 147 145)(144 148 150 146)(145 147 151 149)(148 152 154 150)(149 151 155 153)(152 156 158 154)(153 155 159 157)(156 160 162 158)(157 159 163 161)(160 164 166 162)(161 163 167 165)(164 168 170 166)(165 167 171 169)(168 172 174 170)(169 171 175 173)(172 176 178 174)(173 175 179 177)(176 180 182 178)(177 179 183 181)(180 184 186 182)(181 183 187 185)(184 188 190 186)(185 187 191 189)(188 192 194 190)(189 191 195 193)(192 196 198 194)(193 195 199 197)(196 200 202 198)(197 199 203 201));
}
open
{
type patch;
faces
(
(2 6 7 3)(0 1 5 4)(6 10 11 7)(4 5 9 8)(10 14 15 11)(8 9 13 12)(14 18 19 15)(12 13 17 16)(18 22 23 19)(16 17 21 20)(22 26 27 23)(20 21 25 24)(26 30 31 27)(24 25 29 28)(30 34 35 31)(28 29 33 32)(34 38 39 35)(32 33 37 36)(38 42 43 39)(36 37 41 40)(42 46 47 43)(40 41 45 44)(46 50 51 47)(44 45 49 48)(50 54 55 51)(48 49 53 52)(54 58 59 55)(52 53 57 56)(58 62 63 59)(56 57 61 60)(62 66 67 63)(60 61 65 64)(66 70 71 67)(64 65 69 68)(70 74 75 71)(68 69 73 72)(74 78 79 75)(72 73 77 76)(78 82 83 79)(76 77 81 80)(82 86 87 83)(80 81 85 84)(86 90 91 87)(84 85 89 88)(90 94 95 91)(88 89 93 92)(94 98 99 95)(92 93 97 96)(98 102 103 99)(96 97 101 100)(102 106 107 103)(100 101 105 104)(106 110 111 107)(104 105 109 108)(110 114 115 111)(108 109 113 112)(114 118 119 115)(112 113 117 116)(118 122 123 119)(116 117 121 120)(122 126 127 123)(120 121 125 124)(126 130 131 127)(124 125 129 128)(130 134 135 131)(128 129 133 132)(134 138 139 135)(132 133 137 136)(138 142 143 139)(136 137 141 140)(142 146 147 143)(140 141 145 144)(146 150 151 147)(144 145 149 148)(150 154 155 151)(148 149 153 152)(154 158 159 155)(152 153 157 156)(158 162 163 159)(156 157 161 160)(162 166 167 163)(160 161 165 164)(166 170 171 167)(164 165 169 168)(170 174 175 171)(168 169 173 172)(174 178 179 175)(172 173 177 176)(178 182 183 179)(176 177 181 180)(182 186 187 183)(180 181 185 184)(186 190 191 187)(184 185 189 188)(190 194 195 191)(188 189 193 192)(194 198 199 195)(192 193 197 196)(198 202 203 199)(196 197 201 200)(204 206 207 205)(206 210 211 207)(204 205 209 208)(210 214 215 211)(208 209 213 212)(214 218 219 215)(212 213 217 216)(218 222 223 219)(216 217 221 220)(222 226 227 223)(220 221 225 224)(226 230 231 227)(224 225 229 228)(230 234 235 231)(228 229 233 232)(234 238 239 235)(232 233 237 236)(238 242 243 239)(236 237 241 240)(242 246 247 243)(240 241 245 244)(246 250 251 247)(244 245 249 248)(250 254 255 251)(248 249 253 252)(254 258 259 255)(252 253 257 256)(258 262 263 259)(256 257 261 260)(262 266 267 263)(260 261 265 264)(266 270 271 267)(264 265 269 268)(270 274 275 271)(268 269 273 272)(274 278 279 275)(272 273 277 276)(278 282 283 279)(276 277 281 280)(282 286 287 283)(280 281 285 284)(286 290 291 287)(284 285 289 288)(290 294 295 291)(288 289 293 292)(294 298 299 295)(292 293 297 296)(298 302 303 299)(296 297 301 300)(302 306 307 303)(300 301 305 304)(306 310 311 307)(304 305 309 308)(310 314 315 311)(308 309 313 312)(314 318 319 315)(312 313 317 316)(318 322 323 319)(316 317 321 320)(322 326 327 323)(320 321 325 324)(326 330 331 327)(324 325 329 328)(330 334 335 331)(328 329 333 332)(334 338 339 335)(332 333 337 336)(338 342 343 339)(336 337 341 340)(342 346 347 343)(340 341 345 344)(346 350 351 347)(344 345 349 348)(350 354 355 351)(348 349 353 352)(354 358 359 355)(352 353 357 356)(358 362 363 359)(356 357 361 360)(362 366 367 363)(360 361 365 364)(366 370 371 367)(364 365 369 368)(370 374 375 371)(368 369 373 372)(374 378 379 375)(372 373 377 376)(378 382 383 379)(376 377 381 380)(382 386 387 383)(380 381 385 384)(386 390 391 387)(384 385 389 388)(390 394 395 391)(388 389 393 392)(394 398 399 395)(392 393 397 396)(398 402 403 399)(396 397 401 400)(402 406 407 403)(400 401 405 404));
}
outlet
{
type patch;
faces
(
(204 208 210 206)(205 207 211 209)(208 212 214 210)(209 211 215 213)(212 216 218 214)(213 215 219 217)(216 220 222 218)(217 219 223 221)(220 224 226 222)(221 223 227 225)(224 228 230 226)(225 227 231 229)(228 232 234 230)(229 231 235 233)(232 236 238 234)(233 235 239 237)(236 240 242 238)(237 239 243 241)(240 244 246 242)(241 243 247 245)(244 248 250 246)(245 247 251 249)(248 252 254 250)(249 251 255 253)(252 256 258 254)(253 255 259 257)(256 260 262 258)(257 259 263 261)(260 264 266 262)(261 263 267 265)(264 268 270 266)(265 267 271 269)(268 272 274 270)(269 271 275 273)(272 276 278 274)(273 275 279 277)(276 280 282 278)(277 279 283 281)(280 284 286 282)(281 283 287 285)(284 288 290 286)(285 287 291 289)(288 292 294 290)(289 291 295 293)(292 296 298 294)(293 295 299 297)(296 300 302 298)(297 299 303 301)(300 304 306 302)(301 303 307 305)(304 308 310 306)(305 307 311 309)(308 312 314 310)(309 311 315 313)(312 316 318 314)(313 315 319 317)(316 320 322 318)(317 319 323 321)(320 324 326 322)(321 323 327 325)(324 328 330 326)(325 327 331 329)(328 332 334 330)(329 331 335 333)(332 336 338 334)(333 335 339 337)(336 340 342 338)(337 339 343 341)(340 344 346 342)(341 343 347 345)(344 348 350 346)(345 347 351 349)(348 352 354 350)(349 351 355 353)(352 356 358 354)(353 355 359 357)(356 360 362 358)(357 359 363 361)(360 364 366 362)(361 363 367 365)(364 368 370 366)(365 367 371 369)(368 372 374 370)(369 371 375 373)(372 376 378 374)(373 375 379 377)(376 380 382 378)(377 379 383 381)(380 384 386 382)(381 383 387 385)(384 388 390 386)(385 387 391 389)(388 392 394 390)(389 391 395 393)(392 396 398 394)(393 395 399 397)(396 400 402 398)(397 399 403 401)(400 404 406 402)(401 403 407 405)(404 405 407 406));
}
);